*sub_0_00main_panel
****************************************
* Type     : hspice
* Tool     : AETHER-SE
* Date     : Sun Jul  5 12:47:09 2026
* User     : siduser30
* Top Design : cankao12/00main_panel/schematic
****************************************

.GLOBAL

****************************************
* Library : cankao12
* Cell    : goa_unit
* View    : schematic
****************************************

.SUBCKT goa_unit CLK INPUT OUTPUT RST TTR VDD VGL
c1 PU OUTPUT C1
m2 PU TTR VGL m_goa_tft L=Lt2 W=Wt2
m1 INPUT INPUT PU m_goa_tft L=Lt1 W=Wt1
m10 PU PD VGL m_goa_tft L=Lt10 W=Wt10
m7 PU RST VGL m_goa_tft L=Lt7 W=Wt7
m8 PD_C PU VGL m_goa_tft L=Lt8 W=Wt8
m9 VDD VDD PD_C m_goa_tft L=Lt9 W=Wt9
m6 PD PU VGL m_goa_tft L=Lt6 W=Wt6
m5 VDD PD_C PD m_goa_tft L=Lt5 W=Wt5
m11 OUTPUT PD VGL m_goa_tft L=Lt11 W=Wt11
m4 OUTPUT RST VGL m_goa_tft L=Lt4 W=Wt4
m3 CLK PU OUTPUT m_goa_tft L=Lt3 W=Wt3
.ENDS goa_unit

****************************************
* Library : cankao12
* Cell    : signal_load
* View    : schematic
****************************************

.SUBCKT signal_load CLK1i CLK1o CLK2i CLK2o CLK3i CLK3o CLK4i CLK4o CLK5i CLK5o 
+CLK6i CLK6o CLK7i CLK7o CLK8i CLK8o G<1> G<2> G<3> G<4> G<5> G<6> G<7> G<8> 
+INPUT<1> INPUT<2> INPUT<3> INPUT<4> RST<1> RST<2> RST<3> RST<4> TTR_Li TTR_Lo 
+TTR_Ri TTR_Ro VDD_Li VDD_Lo VDD_Ri VDD_Ro VGL_Li VGL_Lo VGL_Ri VGL_Ro
r14<1> net1<0> INPUT<4> r_goa
r14<2> net1<1> INPUT<3> r_goa
r14<3> net1<2> INPUT<2> r_goa
r14<4> net1<3> INPUT<1> r_goa
r14<5> net1<4> G<8> r_goa
r14<6> net1<5> G<7> r_goa
r14<7> net1<6> G<6> r_goa
r14<8> net1<7> G<5> r_goa
r15<1> net2<0> G<4> r_goa
r15<2> net2<1> G<3> r_goa
r15<3> net2<2> G<2> r_goa
r15<4> net2<3> G<1> r_goa
r15<5> net2<4> RST<4> r_goa
r15<6> net2<5> RST<3> r_goa
r15<7> net2<6> RST<2> r_goa
r15<8> net2<7> RST<1> r_goa
r13 CLK2i CLK2o r_clk_unit
r12 CLK4i CLK4o r_clk_unit
r11 CLK6i CLK6o r_clk_unit
r10 CLK8i CLK8o r_clk_unit
r9 VGL_Ri VGL_Ro r_vgl_unit
r8 VDD_Ri VDD_Ro r_vdd_unit
r7 TTR_Ri TTR_Ro r_ttr_unit
r6 VGL_Li VGL_Lo r_vgl_unit
r5 VDD_Li VDD_Lo r_vdd_unit
r4 TTR_Li TTR_Lo r_ttr_unit
r3 CLK7i CLK7o r_clk_unit
r2 CLK5i CLK5o r_clk_unit
r1 CLK3i CLK3o r_clk_unit
r0 CLK1i CLK1o r_clk_unit
c41 CLK4o CLK8o cclk_unit
c40 CLK6o VGL_Ro cclk_vgl_unit
c39 CLK4o VGL_Ro cclk_vgl_unit
c38 CLK8o VDD_Ro cclk_vdd_unit
c37 CLK6o VDD_Ro cclk_vdd_unit
c36 CLK4o VDD_Ro cclk_vdd_unit
c35 VGL_Ro TTR_Ro cclk_ttr_unit
c34 CLK8o TTR_Ro cclk_ttr_unit
c33 CLK6o TTR_Ro cclk_ttr_unit
c32 CLK4o TTR_Ro cclk_ttr_unit
c31 CLK2o TTR_Ro cclk_unit
c30 CLK2o CLK8o cclk_unit
c29 CLK2o VGL_Ro cclk_vgl_unit
c28 CLK2o VDD_Ro cclk_vdd_unit
c27 CLK2o CLK6o cclk_unit
c26 CLK4o CLK6o cclk_unit
c25 CLK6o CLK8o cclk_unit
c24 CLK8o VGL_Ro cclk_vgl_unit
c23 VGL_Ro VDD_Ro cclk_vdd_unit
c22 VDD_Ro TTR_Ro cclk_ttr_unit
c21 CLK2o CLK4o cclk_unit
c20 VGL_Lo TTR_Lo cclk_ttr_unit
c19 CLK7o VDD_Lo cclk_vdd_unit
c18 CLK7o TTR_Lo cclk_ttr_unit
c17 CLK5o VGL_Lo cclk_vgl_unit
c16 CLK5o VDD_Lo cclk_vdd_unit
c15 CLK5o TTR_Lo cclk_ttr_unit
c14 CLK3o CLK7o cclk_unit
c13 CLK3o VGL_Lo cclk_vgl_unit
c12 CLK3o VDD_Lo cclk_vdd_unit
c11 CLK3o TTR_Lo cclk_ttr_unit
c10 CLK1o TTR_Lo cclk_unit
c9 CLK1o VDD_Lo cclk_vdd_unit
c8 CLK1o VGL_Lo cclk_vgl_unit
c7 CLK1o CLK7o cclk_unit
c6 CLK1o CLK5o cclk_unit
c5 VDD_Lo TTR_Lo cclk_ttr_unit
c4 VGL_Lo VDD_Lo cclk_vdd_unit
c3 CLK7o VGL_Lo cclk_vgl_unit
c2 CLK5o CLK7o cclk_unit
c1 CLK3o CLK5o cclk_unit
c0 CLK1o CLK3o cclk_unit
XI0<1> CLK5o net1<0> G<8> net2<0> TTR_Lo VDD_Lo VGL_Lo goa_unit
XI0<2> CLK6o net1<1> G<7> net2<1> TTR_Ro VDD_Ro VGL_Ro goa_unit
XI0<3> CLK7o net1<2> G<6> net2<2> TTR_Lo VDD_Lo VGL_Lo goa_unit
XI0<4> CLK8o net1<3> G<5> net2<3> TTR_Ro VDD_Ro VGL_Ro goa_unit
XI0<5> CLK1o net1<4> G<4> net2<4> TTR_Lo VDD_Lo VGL_Lo goa_unit
XI0<6> CLK2o net1<5> G<3> net2<5> TTR_Ro VDD_Ro VGL_Ro goa_unit
XI0<7> CLK3o net1<6> G<2> net2<6> TTR_Lo VDD_Lo VGL_Lo goa_unit
XI0<8> CLK4o net1<7> G<1> net2<7> TTR_Ro VDD_Ro VGL_Ro goa_unit
.ENDS signal_load

****************************************
* Library : cankao12
* Cell    : aa_load
* View    : schematic
****************************************

.SUBCKT aa_load IN OUT cap=nil res=nil
c3 OUT 0 "cap/12"
c2 net3 0 "cap/6"
c1 net2 0 "cap/6"
c0 IN 0 "cap/12"
r2 net3 OUT "res/6"
r1 net2 net3 "res/6"
r0 IN net2 "res/6"
.ENDS aa_load

****************************************
* Library : cankao12
* Cell    : pixel
* View    : schematic
****************************************

.SUBCKT pixel Com D G
m0 D G Pixel aa_tft L=Lpixel W=Wpixel
c2 G Pixel Cgs Cgs
c1 Pixel Com Clc Clc
c0 Pixel Com Cst Cst
.ENDS pixel

****************************************
* Library : cankao12
* Cell    : 00main_panel
* View    : schematic
****************************************

* Top-level wrapper removed for ALPS simulation deck
* Original: .SUBCKT sub_0_00main_panel
XI0<1> CLK1<1> CLK1<2> CLK2<1> CLK2<2> CLK3<1> CLK3<2> CLK4<1> CLK4<2> CLK5<1> 
+CLK5<2> CLK6<1> CLK6<2> CLK7<1> CLK7<2> CLK8<1> CLK8<2> DUM<8> DUM<7> DUM<6> 
+DUM<5> G<720> G<719> G<718> G<717> G<716> G<715> G<714> G<713> STV_N<1> 
+STV_N<2> STV_N<3> STV_N<4> TTRL<1> TTRL<2> TTRR<1> TTRR<2> VDDL<1> VDDL<2> 
+VDDR<1> VDDR<2> VGLL<1> VGLL<2> VGLR<1> VGLR<2> signal_load
XI0<2> CLK1<2> CLK1<3> CLK2<2> CLK2<3> CLK3<2> CLK3<3> CLK4<2> CLK4<3> CLK5<2> 
+CLK5<3> CLK6<2> CLK6<3> CLK7<2> CLK7<3> CLK8<2> CLK8<3> G<716> G<715> G<714> 
+G<713> G<712> G<711> G<710> G<709> G<708> G<707> G<706> G<705> G<720> G<719> 
+G<718> G<717> TTRL<2> TTRL<3> TTRR<2> TTRR<3> VDDL<2> VDDL<3> VDDR<2> VDDR<3> 
+VGLL<2> VGLL<3> VGLR<2> VGLR<3> signal_load
XI0<3> CLK1<3> CLK1<4> CLK2<3> CLK2<4> CLK3<3> CLK3<4> CLK4<3> CLK4<4> CLK5<3> 
+CLK5<4> CLK6<3> CLK6<4> CLK7<3> CLK7<4> CLK8<3> CLK8<4> G<708> G<707> G<706> 
+G<705> G<704> G<703> G<702> G<701> G<700> G<699> G<698> G<697> G<712> G<711> 
+G<710> G<709> TTRL<3> TTRL<4> TTRR<3> TTRR<4> VDDL<3> VDDL<4> VDDR<3> VDDR<4> 
+VGLL<3> VGLL<4> VGLR<3> VGLR<4> signal_load
XI0<4> CLK1<4> CLK1<5> CLK2<4> CLK2<5> CLK3<4> CLK3<5> CLK4<4> CLK4<5> CLK5<4> 
+CLK5<5> CLK6<4> CLK6<5> CLK7<4> CLK7<5> CLK8<4> CLK8<5> G<700> G<699> G<698> 
+G<697> G<696> G<695> G<694> G<693> G<692> G<691> G<690> G<689> G<704> G<703> 
+G<702> G<701> TTRL<4> TTRL<5> TTRR<4> TTRR<5> VDDL<4> VDDL<5> VDDR<4> VDDR<5> 
+VGLL<4> VGLL<5> VGLR<4> VGLR<5> signal_load
XI0<5> CLK1<5> CLK1<6> CLK2<5> CLK2<6> CLK3<5> CLK3<6> CLK4<5> CLK4<6> CLK5<5> 
+CLK5<6> CLK6<5> CLK6<6> CLK7<5> CLK7<6> CLK8<5> CLK8<6> G<692> G<691> G<690> 
+G<689> G<688> G<687> G<686> G<685> G<684> G<683> G<682> G<681> G<696> G<695> 
+G<694> G<693> TTRL<5> TTRL<6> TTRR<5> TTRR<6> VDDL<5> VDDL<6> VDDR<5> VDDR<6> 
+VGLL<5> VGLL<6> VGLR<5> VGLR<6> signal_load
XI0<6> CLK1<6> CLK1<7> CLK2<6> CLK2<7> CLK3<6> CLK3<7> CLK4<6> CLK4<7> CLK5<6> 
+CLK5<7> CLK6<6> CLK6<7> CLK7<6> CLK7<7> CLK8<6> CLK8<7> G<684> G<683> G<682> 
+G<681> G<680> G<679> G<678> G<677> G<676> G<675> G<674> G<673> G<688> G<687> 
+G<686> G<685> TTRL<6> TTRL<7> TTRR<6> TTRR<7> VDDL<6> VDDL<7> VDDR<6> VDDR<7> 
+VGLL<6> VGLL<7> VGLR<6> VGLR<7> signal_load
XI0<7> CLK1<7> CLK1<8> CLK2<7> CLK2<8> CLK3<7> CLK3<8> CLK4<7> CLK4<8> CLK5<7> 
+CLK5<8> CLK6<7> CLK6<8> CLK7<7> CLK7<8> CLK8<7> CLK8<8> G<676> G<675> G<674> 
+G<673> G<672> G<671> G<670> G<669> G<668> G<667> G<666> G<665> G<680> G<679> 
+G<678> G<677> TTRL<7> TTRL<8> TTRR<7> TTRR<8> VDDL<7> VDDL<8> VDDR<7> VDDR<8> 
+VGLL<7> VGLL<8> VGLR<7> VGLR<8> signal_load
XI0<8> CLK1<8> CLK1<9> CLK2<8> CLK2<9> CLK3<8> CLK3<9> CLK4<8> CLK4<9> CLK5<8> 
+CLK5<9> CLK6<8> CLK6<9> CLK7<8> CLK7<9> CLK8<8> CLK8<9> G<668> G<667> G<666> 
+G<665> G<664> G<663> G<662> G<661> G<660> G<659> G<658> G<657> G<672> G<671> 
+G<670> G<669> TTRL<8> TTRL<9> TTRR<8> TTRR<9> VDDL<8> VDDL<9> VDDR<8> VDDR<9> 
+VGLL<8> VGLL<9> VGLR<8> VGLR<9> signal_load
XI0<9> CLK1<9> CLK1<10> CLK2<9> CLK2<10> CLK3<9> CLK3<10> CLK4<9> CLK4<10> 
+CLK5<9> CLK5<10> CLK6<9> CLK6<10> CLK7<9> CLK7<10> CLK8<9> CLK8<10> G<660> 
+G<659> G<658> G<657> G<656> G<655> G<654> G<653> G<652> G<651> G<650> G<649> 
+G<664> G<663> G<662> G<661> TTRL<9> TTRL<10> TTRR<9> TTRR<10> VDDL<9> VDDL<10> 
+VDDR<9> VDDR<10> VGLL<9> VGLL<10> VGLR<9> VGLR<10> signal_load
XI0<10> CLK1<10> CLK1<11> CLK2<10> CLK2<11> CLK3<10> CLK3<11> CLK4<10> CLK4<11> 
+CLK5<10> CLK5<11> CLK6<10> CLK6<11> CLK7<10> CLK7<11> CLK8<10> CLK8<11> G<652> 
+G<651> G<650> G<649> G<648> G<647> G<646> G<645> G<644> G<643> G<642> G<641> 
+G<656> G<655> G<654> G<653> TTRL<10> TTRL<11> TTRR<10> TTRR<11> VDDL<10> 
+VDDL<11> VDDR<10> VDDR<11> VGLL<10> VGLL<11> VGLR<10> VGLR<11> signal_load
XI0<11> CLK1<11> CLK1<12> CLK2<11> CLK2<12> CLK3<11> CLK3<12> CLK4<11> CLK4<12> 
+CLK5<11> CLK5<12> CLK6<11> CLK6<12> CLK7<11> CLK7<12> CLK8<11> CLK8<12> G<644> 
+G<643> G<642> G<641> G<640> G<639> G<638> G<637> G<636> G<635> G<634> G<633> 
+G<648> G<647> G<646> G<645> TTRL<11> TTRL<12> TTRR<11> TTRR<12> VDDL<11> 
+VDDL<12> VDDR<11> VDDR<12> VGLL<11> VGLL<12> VGLR<11> VGLR<12> signal_load
XI0<12> CLK1<12> CLK1<13> CLK2<12> CLK2<13> CLK3<12> CLK3<13> CLK4<12> CLK4<13> 
+CLK5<12> CLK5<13> CLK6<12> CLK6<13> CLK7<12> CLK7<13> CLK8<12> CLK8<13> G<636> 
+G<635> G<634> G<633> G<632> G<631> G<630> G<629> G<628> G<627> G<626> G<625> 
+G<640> G<639> G<638> G<637> TTRL<12> TTRL<13> TTRR<12> TTRR<13> VDDL<12> 
+VDDL<13> VDDR<12> VDDR<13> VGLL<12> VGLL<13> VGLR<12> VGLR<13> signal_load
XI0<13> CLK1<13> CLK1<14> CLK2<13> CLK2<14> CLK3<13> CLK3<14> CLK4<13> CLK4<14> 
+CLK5<13> CLK5<14> CLK6<13> CLK6<14> CLK7<13> CLK7<14> CLK8<13> CLK8<14> G<628> 
+G<627> G<626> G<625> G<624> G<623> G<622> G<621> G<620> G<619> G<618> G<617> 
+G<632> G<631> G<630> G<629> TTRL<13> TTRL<14> TTRR<13> TTRR<14> VDDL<13> 
+VDDL<14> VDDR<13> VDDR<14> VGLL<13> VGLL<14> VGLR<13> VGLR<14> signal_load
XI0<14> CLK1<14> CLK1<15> CLK2<14> CLK2<15> CLK3<14> CLK3<15> CLK4<14> CLK4<15> 
+CLK5<14> CLK5<15> CLK6<14> CLK6<15> CLK7<14> CLK7<15> CLK8<14> CLK8<15> G<620> 
+G<619> G<618> G<617> G<616> G<615> G<614> G<613> G<612> G<611> G<610> G<609> 
+G<624> G<623> G<622> G<621> TTRL<14> TTRL<15> TTRR<14> TTRR<15> VDDL<14> 
+VDDL<15> VDDR<14> VDDR<15> VGLL<14> VGLL<15> VGLR<14> VGLR<15> signal_load
XI0<15> CLK1<15> CLK1<16> CLK2<15> CLK2<16> CLK3<15> CLK3<16> CLK4<15> CLK4<16> 
+CLK5<15> CLK5<16> CLK6<15> CLK6<16> CLK7<15> CLK7<16> CLK8<15> CLK8<16> G<612> 
+G<611> G<610> G<609> G<608> G<607> G<606> G<605> G<604> G<603> G<602> G<601> 
+G<616> G<615> G<614> G<613> TTRL<15> TTRL<16> TTRR<15> TTRR<16> VDDL<15> 
+VDDL<16> VDDR<15> VDDR<16> VGLL<15> VGLL<16> VGLR<15> VGLR<16> signal_load
XI0<16> CLK1<16> CLK1<17> CLK2<16> CLK2<17> CLK3<16> CLK3<17> CLK4<16> CLK4<17> 
+CLK5<16> CLK5<17> CLK6<16> CLK6<17> CLK7<16> CLK7<17> CLK8<16> CLK8<17> G<604> 
+G<603> G<602> G<601> G<600> G<599> G<598> G<597> G<596> G<595> G<594> G<593> 
+G<608> G<607> G<606> G<605> TTRL<16> TTRL<17> TTRR<16> TTRR<17> VDDL<16> 
+VDDL<17> VDDR<16> VDDR<17> VGLL<16> VGLL<17> VGLR<16> VGLR<17> signal_load
XI0<17> CLK1<17> CLK1<18> CLK2<17> CLK2<18> CLK3<17> CLK3<18> CLK4<17> CLK4<18> 
+CLK5<17> CLK5<18> CLK6<17> CLK6<18> CLK7<17> CLK7<18> CLK8<17> CLK8<18> G<596> 
+G<595> G<594> G<593> G<592> G<591> G<590> G<589> G<588> G<587> G<586> G<585> 
+G<600> G<599> G<598> G<597> TTRL<17> TTRL<18> TTRR<17> TTRR<18> VDDL<17> 
+VDDL<18> VDDR<17> VDDR<18> VGLL<17> VGLL<18> VGLR<17> VGLR<18> signal_load
XI0<18> CLK1<18> CLK1<19> CLK2<18> CLK2<19> CLK3<18> CLK3<19> CLK4<18> CLK4<19> 
+CLK5<18> CLK5<19> CLK6<18> CLK6<19> CLK7<18> CLK7<19> CLK8<18> CLK8<19> G<588> 
+G<587> G<586> G<585> G<584> G<583> G<582> G<581> G<580> G<579> G<578> G<577> 
+G<592> G<591> G<590> G<589> TTRL<18> TTRL<19> TTRR<18> TTRR<19> VDDL<18> 
+VDDL<19> VDDR<18> VDDR<19> VGLL<18> VGLL<19> VGLR<18> VGLR<19> signal_load
XI0<19> CLK1<19> CLK1<20> CLK2<19> CLK2<20> CLK3<19> CLK3<20> CLK4<19> CLK4<20> 
+CLK5<19> CLK5<20> CLK6<19> CLK6<20> CLK7<19> CLK7<20> CLK8<19> CLK8<20> G<580> 
+G<579> G<578> G<577> G<576> G<575> G<574> G<573> G<572> G<571> G<570> G<569> 
+G<584> G<583> G<582> G<581> TTRL<19> TTRL<20> TTRR<19> TTRR<20> VDDL<19> 
+VDDL<20> VDDR<19> VDDR<20> VGLL<19> VGLL<20> VGLR<19> VGLR<20> signal_load
XI0<20> CLK1<20> CLK1<21> CLK2<20> CLK2<21> CLK3<20> CLK3<21> CLK4<20> CLK4<21> 
+CLK5<20> CLK5<21> CLK6<20> CLK6<21> CLK7<20> CLK7<21> CLK8<20> CLK8<21> G<572> 
+G<571> G<570> G<569> G<568> G<567> G<566> G<565> G<564> G<563> G<562> G<561> 
+G<576> G<575> G<574> G<573> TTRL<20> TTRL<21> TTRR<20> TTRR<21> VDDL<20> 
+VDDL<21> VDDR<20> VDDR<21> VGLL<20> VGLL<21> VGLR<20> VGLR<21> signal_load
XI0<21> CLK1<21> CLK1<22> CLK2<21> CLK2<22> CLK3<21> CLK3<22> CLK4<21> CLK4<22> 
+CLK5<21> CLK5<22> CLK6<21> CLK6<22> CLK7<21> CLK7<22> CLK8<21> CLK8<22> G<564> 
+G<563> G<562> G<561> G<560> G<559> G<558> G<557> G<556> G<555> G<554> G<553> 
+G<568> G<567> G<566> G<565> TTRL<21> TTRL<22> TTRR<21> TTRR<22> VDDL<21> 
+VDDL<22> VDDR<21> VDDR<22> VGLL<21> VGLL<22> VGLR<21> VGLR<22> signal_load
XI0<22> CLK1<22> CLK1<23> CLK2<22> CLK2<23> CLK3<22> CLK3<23> CLK4<22> CLK4<23> 
+CLK5<22> CLK5<23> CLK6<22> CLK6<23> CLK7<22> CLK7<23> CLK8<22> CLK8<23> G<556> 
+G<555> G<554> G<553> G<552> G<551> G<550> G<549> G<548> G<547> G<546> G<545> 
+G<560> G<559> G<558> G<557> TTRL<22> TTRL<23> TTRR<22> TTRR<23> VDDL<22> 
+VDDL<23> VDDR<22> VDDR<23> VGLL<22> VGLL<23> VGLR<22> VGLR<23> signal_load
XI0<23> CLK1<23> CLK1<24> CLK2<23> CLK2<24> CLK3<23> CLK3<24> CLK4<23> CLK4<24> 
+CLK5<23> CLK5<24> CLK6<23> CLK6<24> CLK7<23> CLK7<24> CLK8<23> CLK8<24> G<548> 
+G<547> G<546> G<545> G<544> G<543> G<542> G<541> G<540> G<539> G<538> G<537> 
+G<552> G<551> G<550> G<549> TTRL<23> TTRL<24> TTRR<23> TTRR<24> VDDL<23> 
+VDDL<24> VDDR<23> VDDR<24> VGLL<23> VGLL<24> VGLR<23> VGLR<24> signal_load
XI0<24> CLK1<24> CLK1<25> CLK2<24> CLK2<25> CLK3<24> CLK3<25> CLK4<24> CLK4<25> 
+CLK5<24> CLK5<25> CLK6<24> CLK6<25> CLK7<24> CLK7<25> CLK8<24> CLK8<25> G<540> 
+G<539> G<538> G<537> G<536> G<535> G<534> G<533> G<532> G<531> G<530> G<529> 
+G<544> G<543> G<542> G<541> TTRL<24> TTRL<25> TTRR<24> TTRR<25> VDDL<24> 
+VDDL<25> VDDR<24> VDDR<25> VGLL<24> VGLL<25> VGLR<24> VGLR<25> signal_load
XI0<25> CLK1<25> CLK1<26> CLK2<25> CLK2<26> CLK3<25> CLK3<26> CLK4<25> CLK4<26> 
+CLK5<25> CLK5<26> CLK6<25> CLK6<26> CLK7<25> CLK7<26> CLK8<25> CLK8<26> G<532> 
+G<531> G<530> G<529> G<528> G<527> G<526> G<525> G<524> G<523> G<522> G<521> 
+G<536> G<535> G<534> G<533> TTRL<25> TTRL<26> TTRR<25> TTRR<26> VDDL<25> 
+VDDL<26> VDDR<25> VDDR<26> VGLL<25> VGLL<26> VGLR<25> VGLR<26> signal_load
XI0<26> CLK1<26> CLK1<27> CLK2<26> CLK2<27> CLK3<26> CLK3<27> CLK4<26> CLK4<27> 
+CLK5<26> CLK5<27> CLK6<26> CLK6<27> CLK7<26> CLK7<27> CLK8<26> CLK8<27> G<524> 
+G<523> G<522> G<521> G<520> G<519> G<518> G<517> G<516> G<515> G<514> G<513> 
+G<528> G<527> G<526> G<525> TTRL<26> TTRL<27> TTRR<26> TTRR<27> VDDL<26> 
+VDDL<27> VDDR<26> VDDR<27> VGLL<26> VGLL<27> VGLR<26> VGLR<27> signal_load
XI0<27> CLK1<27> CLK1<28> CLK2<27> CLK2<28> CLK3<27> CLK3<28> CLK4<27> CLK4<28> 
+CLK5<27> CLK5<28> CLK6<27> CLK6<28> CLK7<27> CLK7<28> CLK8<27> CLK8<28> G<516> 
+G<515> G<514> G<513> G<512> G<511> G<510> G<509> G<508> G<507> G<506> G<505> 
+G<520> G<519> G<518> G<517> TTRL<27> TTRL<28> TTRR<27> TTRR<28> VDDL<27> 
+VDDL<28> VDDR<27> VDDR<28> VGLL<27> VGLL<28> VGLR<27> VGLR<28> signal_load
XI0<28> CLK1<28> CLK1<29> CLK2<28> CLK2<29> CLK3<28> CLK3<29> CLK4<28> CLK4<29> 
+CLK5<28> CLK5<29> CLK6<28> CLK6<29> CLK7<28> CLK7<29> CLK8<28> CLK8<29> G<508> 
+G<507> G<506> G<505> G<504> G<503> G<502> G<501> G<500> G<499> G<498> G<497> 
+G<512> G<511> G<510> G<509> TTRL<28> TTRL<29> TTRR<28> TTRR<29> VDDL<28> 
+VDDL<29> VDDR<28> VDDR<29> VGLL<28> VGLL<29> VGLR<28> VGLR<29> signal_load
XI0<29> CLK1<29> CLK1<30> CLK2<29> CLK2<30> CLK3<29> CLK3<30> CLK4<29> CLK4<30> 
+CLK5<29> CLK5<30> CLK6<29> CLK6<30> CLK7<29> CLK7<30> CLK8<29> CLK8<30> G<500> 
+G<499> G<498> G<497> G<496> G<495> G<494> G<493> G<492> G<491> G<490> G<489> 
+G<504> G<503> G<502> G<501> TTRL<29> TTRL<30> TTRR<29> TTRR<30> VDDL<29> 
+VDDL<30> VDDR<29> VDDR<30> VGLL<29> VGLL<30> VGLR<29> VGLR<30> signal_load
XI0<30> CLK1<30> CLK1<31> CLK2<30> CLK2<31> CLK3<30> CLK3<31> CLK4<30> CLK4<31> 
+CLK5<30> CLK5<31> CLK6<30> CLK6<31> CLK7<30> CLK7<31> CLK8<30> CLK8<31> G<492> 
+G<491> G<490> G<489> G<488> G<487> G<486> G<485> G<484> G<483> G<482> G<481> 
+G<496> G<495> G<494> G<493> TTRL<30> TTRL<31> TTRR<30> TTRR<31> VDDL<30> 
+VDDL<31> VDDR<30> VDDR<31> VGLL<30> VGLL<31> VGLR<30> VGLR<31> signal_load
XI0<31> CLK1<31> CLK1<32> CLK2<31> CLK2<32> CLK3<31> CLK3<32> CLK4<31> CLK4<32> 
+CLK5<31> CLK5<32> CLK6<31> CLK6<32> CLK7<31> CLK7<32> CLK8<31> CLK8<32> G<484> 
+G<483> G<482> G<481> G<480> G<479> G<478> G<477> G<476> G<475> G<474> G<473> 
+G<488> G<487> G<486> G<485> TTRL<31> TTRL<32> TTRR<31> TTRR<32> VDDL<31> 
+VDDL<32> VDDR<31> VDDR<32> VGLL<31> VGLL<32> VGLR<31> VGLR<32> signal_load
XI0<32> CLK1<32> CLK1<33> CLK2<32> CLK2<33> CLK3<32> CLK3<33> CLK4<32> CLK4<33> 
+CLK5<32> CLK5<33> CLK6<32> CLK6<33> CLK7<32> CLK7<33> CLK8<32> CLK8<33> G<476> 
+G<475> G<474> G<473> G<472> G<471> G<470> G<469> G<468> G<467> G<466> G<465> 
+G<480> G<479> G<478> G<477> TTRL<32> TTRL<33> TTRR<32> TTRR<33> VDDL<32> 
+VDDL<33> VDDR<32> VDDR<33> VGLL<32> VGLL<33> VGLR<32> VGLR<33> signal_load
XI0<33> CLK1<33> CLK1<34> CLK2<33> CLK2<34> CLK3<33> CLK3<34> CLK4<33> CLK4<34> 
+CLK5<33> CLK5<34> CLK6<33> CLK6<34> CLK7<33> CLK7<34> CLK8<33> CLK8<34> G<468> 
+G<467> G<466> G<465> G<464> G<463> G<462> G<461> G<460> G<459> G<458> G<457> 
+G<472> G<471> G<470> G<469> TTRL<33> TTRL<34> TTRR<33> TTRR<34> VDDL<33> 
+VDDL<34> VDDR<33> VDDR<34> VGLL<33> VGLL<34> VGLR<33> VGLR<34> signal_load
XI0<34> CLK1<34> CLK1<35> CLK2<34> CLK2<35> CLK3<34> CLK3<35> CLK4<34> CLK4<35> 
+CLK5<34> CLK5<35> CLK6<34> CLK6<35> CLK7<34> CLK7<35> CLK8<34> CLK8<35> G<460> 
+G<459> G<458> G<457> G<456> G<455> G<454> G<453> G<452> G<451> G<450> G<449> 
+G<464> G<463> G<462> G<461> TTRL<34> TTRL<35> TTRR<34> TTRR<35> VDDL<34> 
+VDDL<35> VDDR<34> VDDR<35> VGLL<34> VGLL<35> VGLR<34> VGLR<35> signal_load
XI0<35> CLK1<35> CLK1<36> CLK2<35> CLK2<36> CLK3<35> CLK3<36> CLK4<35> CLK4<36> 
+CLK5<35> CLK5<36> CLK6<35> CLK6<36> CLK7<35> CLK7<36> CLK8<35> CLK8<36> G<452> 
+G<451> G<450> G<449> G<448> G<447> G<446> G<445> G<444> G<443> G<442> G<441> 
+G<456> G<455> G<454> G<453> TTRL<35> TTRL<36> TTRR<35> TTRR<36> VDDL<35> 
+VDDL<36> VDDR<35> VDDR<36> VGLL<35> VGLL<36> VGLR<35> VGLR<36> signal_load
XI0<36> CLK1<36> CLK1<37> CLK2<36> CLK2<37> CLK3<36> CLK3<37> CLK4<36> CLK4<37> 
+CLK5<36> CLK5<37> CLK6<36> CLK6<37> CLK7<36> CLK7<37> CLK8<36> CLK8<37> G<444> 
+G<443> G<442> G<441> G<440> G<439> G<438> G<437> G<436> G<435> G<434> G<433> 
+G<448> G<447> G<446> G<445> TTRL<36> TTRL<37> TTRR<36> TTRR<37> VDDL<36> 
+VDDL<37> VDDR<36> VDDR<37> VGLL<36> VGLL<37> VGLR<36> VGLR<37> signal_load
XI0<37> CLK1<37> CLK1<38> CLK2<37> CLK2<38> CLK3<37> CLK3<38> CLK4<37> CLK4<38> 
+CLK5<37> CLK5<38> CLK6<37> CLK6<38> CLK7<37> CLK7<38> CLK8<37> CLK8<38> G<436> 
+G<435> G<434> G<433> G<432> G<431> G<430> G<429> G<428> G<427> G<426> G<425> 
+G<440> G<439> G<438> G<437> TTRL<37> TTRL<38> TTRR<37> TTRR<38> VDDL<37> 
+VDDL<38> VDDR<37> VDDR<38> VGLL<37> VGLL<38> VGLR<37> VGLR<38> signal_load
XI0<38> CLK1<38> CLK1<39> CLK2<38> CLK2<39> CLK3<38> CLK3<39> CLK4<38> CLK4<39> 
+CLK5<38> CLK5<39> CLK6<38> CLK6<39> CLK7<38> CLK7<39> CLK8<38> CLK8<39> G<428> 
+G<427> G<426> G<425> G<424> G<423> G<422> G<421> G<420> G<419> G<418> G<417> 
+G<432> G<431> G<430> G<429> TTRL<38> TTRL<39> TTRR<38> TTRR<39> VDDL<38> 
+VDDL<39> VDDR<38> VDDR<39> VGLL<38> VGLL<39> VGLR<38> VGLR<39> signal_load
XI0<39> CLK1<39> CLK1<40> CLK2<39> CLK2<40> CLK3<39> CLK3<40> CLK4<39> CLK4<40> 
+CLK5<39> CLK5<40> CLK6<39> CLK6<40> CLK7<39> CLK7<40> CLK8<39> CLK8<40> G<420> 
+G<419> G<418> G<417> G<416> G<415> G<414> G<413> G<412> G<411> G<410> G<409> 
+G<424> G<423> G<422> G<421> TTRL<39> TTRL<40> TTRR<39> TTRR<40> VDDL<39> 
+VDDL<40> VDDR<39> VDDR<40> VGLL<39> VGLL<40> VGLR<39> VGLR<40> signal_load
XI0<40> CLK1<40> CLK1<41> CLK2<40> CLK2<41> CLK3<40> CLK3<41> CLK4<40> CLK4<41> 
+CLK5<40> CLK5<41> CLK6<40> CLK6<41> CLK7<40> CLK7<41> CLK8<40> CLK8<41> G<412> 
+G<411> G<410> G<409> G<408> G<407> G<406> G<405> G<404> G<403> G<402> G<401> 
+G<416> G<415> G<414> G<413> TTRL<40> TTRL<41> TTRR<40> TTRR<41> VDDL<40> 
+VDDL<41> VDDR<40> VDDR<41> VGLL<40> VGLL<41> VGLR<40> VGLR<41> signal_load
XI0<41> CLK1<41> CLK1<42> CLK2<41> CLK2<42> CLK3<41> CLK3<42> CLK4<41> CLK4<42> 
+CLK5<41> CLK5<42> CLK6<41> CLK6<42> CLK7<41> CLK7<42> CLK8<41> CLK8<42> G<404> 
+G<403> G<402> G<401> G<400> G<399> G<398> G<397> G<396> G<395> G<394> G<393> 
+G<408> G<407> G<406> G<405> TTRL<41> TTRL<42> TTRR<41> TTRR<42> VDDL<41> 
+VDDL<42> VDDR<41> VDDR<42> VGLL<41> VGLL<42> VGLR<41> VGLR<42> signal_load
XI0<42> CLK1<42> CLK1<43> CLK2<42> CLK2<43> CLK3<42> CLK3<43> CLK4<42> CLK4<43> 
+CLK5<42> CLK5<43> CLK6<42> CLK6<43> CLK7<42> CLK7<43> CLK8<42> CLK8<43> G<396> 
+G<395> G<394> G<393> G<392> G<391> G<390> G<389> G<388> G<387> G<386> G<385> 
+G<400> G<399> G<398> G<397> TTRL<42> TTRL<43> TTRR<42> TTRR<43> VDDL<42> 
+VDDL<43> VDDR<42> VDDR<43> VGLL<42> VGLL<43> VGLR<42> VGLR<43> signal_load
XI0<43> CLK1<43> CLK1<44> CLK2<43> CLK2<44> CLK3<43> CLK3<44> CLK4<43> CLK4<44> 
+CLK5<43> CLK5<44> CLK6<43> CLK6<44> CLK7<43> CLK7<44> CLK8<43> CLK8<44> G<388> 
+G<387> G<386> G<385> G<384> G<383> G<382> G<381> G<380> G<379> G<378> G<377> 
+G<392> G<391> G<390> G<389> TTRL<43> TTRL<44> TTRR<43> TTRR<44> VDDL<43> 
+VDDL<44> VDDR<43> VDDR<44> VGLL<43> VGLL<44> VGLR<43> VGLR<44> signal_load
XI0<44> CLK1<44> CLK1<45> CLK2<44> CLK2<45> CLK3<44> CLK3<45> CLK4<44> CLK4<45> 
+CLK5<44> CLK5<45> CLK6<44> CLK6<45> CLK7<44> CLK7<45> CLK8<44> CLK8<45> G<380> 
+G<379> G<378> G<377> G<376> G<375> G<374> G<373> G<372> G<371> G<370> G<369> 
+G<384> G<383> G<382> G<381> TTRL<44> TTRL<45> TTRR<44> TTRR<45> VDDL<44> 
+VDDL<45> VDDR<44> VDDR<45> VGLL<44> VGLL<45> VGLR<44> VGLR<45> signal_load
XI0<45> CLK1<45> CLK1<46> CLK2<45> CLK2<46> CLK3<45> CLK3<46> CLK4<45> CLK4<46> 
+CLK5<45> CLK5<46> CLK6<45> CLK6<46> CLK7<45> CLK7<46> CLK8<45> CLK8<46> G<372> 
+G<371> G<370> G<369> G<368> G<367> G<366> G<365> G<364> G<363> G<362> G<361> 
+G<376> G<375> G<374> G<373> TTRL<45> TTRL<46> TTRR<45> TTRR<46> VDDL<45> 
+VDDL<46> VDDR<45> VDDR<46> VGLL<45> VGLL<46> VGLR<45> VGLR<46> signal_load
XI0<46> CLK1<46> CLK1<47> CLK2<46> CLK2<47> CLK3<46> CLK3<47> CLK4<46> CLK4<47> 
+CLK5<46> CLK5<47> CLK6<46> CLK6<47> CLK7<46> CLK7<47> CLK8<46> CLK8<47> G<364> 
+G<363> G<362> G<361> G<360> G<359> G<358> G<357> G<356> G<355> G<354> G<353> 
+G<368> G<367> G<366> G<365> TTRL<46> TTRL<47> TTRR<46> TTRR<47> VDDL<46> 
+VDDL<47> VDDR<46> VDDR<47> VGLL<46> VGLL<47> VGLR<46> VGLR<47> signal_load
XI0<47> CLK1<47> CLK1<48> CLK2<47> CLK2<48> CLK3<47> CLK3<48> CLK4<47> CLK4<48> 
+CLK5<47> CLK5<48> CLK6<47> CLK6<48> CLK7<47> CLK7<48> CLK8<47> CLK8<48> G<356> 
+G<355> G<354> G<353> G<352> G<351> G<350> G<349> G<348> G<347> G<346> G<345> 
+G<360> G<359> G<358> G<357> TTRL<47> TTRL<48> TTRR<47> TTRR<48> VDDL<47> 
+VDDL<48> VDDR<47> VDDR<48> VGLL<47> VGLL<48> VGLR<47> VGLR<48> signal_load
XI0<48> CLK1<48> CLK1<49> CLK2<48> CLK2<49> CLK3<48> CLK3<49> CLK4<48> CLK4<49> 
+CLK5<48> CLK5<49> CLK6<48> CLK6<49> CLK7<48> CLK7<49> CLK8<48> CLK8<49> G<348> 
+G<347> G<346> G<345> G<344> G<343> G<342> G<341> G<340> G<339> G<338> G<337> 
+G<352> G<351> G<350> G<349> TTRL<48> TTRL<49> TTRR<48> TTRR<49> VDDL<48> 
+VDDL<49> VDDR<48> VDDR<49> VGLL<48> VGLL<49> VGLR<48> VGLR<49> signal_load
XI0<49> CLK1<49> CLK1<50> CLK2<49> CLK2<50> CLK3<49> CLK3<50> CLK4<49> CLK4<50> 
+CLK5<49> CLK5<50> CLK6<49> CLK6<50> CLK7<49> CLK7<50> CLK8<49> CLK8<50> G<340> 
+G<339> G<338> G<337> G<336> G<335> G<334> G<333> G<332> G<331> G<330> G<329> 
+G<344> G<343> G<342> G<341> TTRL<49> TTRL<50> TTRR<49> TTRR<50> VDDL<49> 
+VDDL<50> VDDR<49> VDDR<50> VGLL<49> VGLL<50> VGLR<49> VGLR<50> signal_load
XI0<50> CLK1<50> CLK1<51> CLK2<50> CLK2<51> CLK3<50> CLK3<51> CLK4<50> CLK4<51> 
+CLK5<50> CLK5<51> CLK6<50> CLK6<51> CLK7<50> CLK7<51> CLK8<50> CLK8<51> G<332> 
+G<331> G<330> G<329> G<328> G<327> G<326> G<325> G<324> G<323> G<322> G<321> 
+G<336> G<335> G<334> G<333> TTRL<50> TTRL<51> TTRR<50> TTRR<51> VDDL<50> 
+VDDL<51> VDDR<50> VDDR<51> VGLL<50> VGLL<51> VGLR<50> VGLR<51> signal_load
XI0<51> CLK1<51> CLK1<52> CLK2<51> CLK2<52> CLK3<51> CLK3<52> CLK4<51> CLK4<52> 
+CLK5<51> CLK5<52> CLK6<51> CLK6<52> CLK7<51> CLK7<52> CLK8<51> CLK8<52> G<324> 
+G<323> G<322> G<321> G<320> G<319> G<318> G<317> G<316> G<315> G<314> G<313> 
+G<328> G<327> G<326> G<325> TTRL<51> TTRL<52> TTRR<51> TTRR<52> VDDL<51> 
+VDDL<52> VDDR<51> VDDR<52> VGLL<51> VGLL<52> VGLR<51> VGLR<52> signal_load
XI0<52> CLK1<52> CLK1<53> CLK2<52> CLK2<53> CLK3<52> CLK3<53> CLK4<52> CLK4<53> 
+CLK5<52> CLK5<53> CLK6<52> CLK6<53> CLK7<52> CLK7<53> CLK8<52> CLK8<53> G<316> 
+G<315> G<314> G<313> G<312> G<311> G<310> G<309> G<308> G<307> G<306> G<305> 
+G<320> G<319> G<318> G<317> TTRL<52> TTRL<53> TTRR<52> TTRR<53> VDDL<52> 
+VDDL<53> VDDR<52> VDDR<53> VGLL<52> VGLL<53> VGLR<52> VGLR<53> signal_load
XI0<53> CLK1<53> CLK1<54> CLK2<53> CLK2<54> CLK3<53> CLK3<54> CLK4<53> CLK4<54> 
+CLK5<53> CLK5<54> CLK6<53> CLK6<54> CLK7<53> CLK7<54> CLK8<53> CLK8<54> G<308> 
+G<307> G<306> G<305> G<304> G<303> G<302> G<301> G<300> G<299> G<298> G<297> 
+G<312> G<311> G<310> G<309> TTRL<53> TTRL<54> TTRR<53> TTRR<54> VDDL<53> 
+VDDL<54> VDDR<53> VDDR<54> VGLL<53> VGLL<54> VGLR<53> VGLR<54> signal_load
XI0<54> CLK1<54> CLK1<55> CLK2<54> CLK2<55> CLK3<54> CLK3<55> CLK4<54> CLK4<55> 
+CLK5<54> CLK5<55> CLK6<54> CLK6<55> CLK7<54> CLK7<55> CLK8<54> CLK8<55> G<300> 
+G<299> G<298> G<297> G<296> G<295> G<294> G<293> G<292> G<291> G<290> G<289> 
+G<304> G<303> G<302> G<301> TTRL<54> TTRL<55> TTRR<54> TTRR<55> VDDL<54> 
+VDDL<55> VDDR<54> VDDR<55> VGLL<54> VGLL<55> VGLR<54> VGLR<55> signal_load
XI0<55> CLK1<55> CLK1<56> CLK2<55> CLK2<56> CLK3<55> CLK3<56> CLK4<55> CLK4<56> 
+CLK5<55> CLK5<56> CLK6<55> CLK6<56> CLK7<55> CLK7<56> CLK8<55> CLK8<56> G<292> 
+G<291> G<290> G<289> G<288> G<287> G<286> G<285> G<284> G<283> G<282> G<281> 
+G<296> G<295> G<294> G<293> TTRL<55> TTRL<56> TTRR<55> TTRR<56> VDDL<55> 
+VDDL<56> VDDR<55> VDDR<56> VGLL<55> VGLL<56> VGLR<55> VGLR<56> signal_load
XI0<56> CLK1<56> CLK1<57> CLK2<56> CLK2<57> CLK3<56> CLK3<57> CLK4<56> CLK4<57> 
+CLK5<56> CLK5<57> CLK6<56> CLK6<57> CLK7<56> CLK7<57> CLK8<56> CLK8<57> G<284> 
+G<283> G<282> G<281> G<280> G<279> G<278> G<277> G<276> G<275> G<274> G<273> 
+G<288> G<287> G<286> G<285> TTRL<56> TTRL<57> TTRR<56> TTRR<57> VDDL<56> 
+VDDL<57> VDDR<56> VDDR<57> VGLL<56> VGLL<57> VGLR<56> VGLR<57> signal_load
XI0<57> CLK1<57> CLK1<58> CLK2<57> CLK2<58> CLK3<57> CLK3<58> CLK4<57> CLK4<58> 
+CLK5<57> CLK5<58> CLK6<57> CLK6<58> CLK7<57> CLK7<58> CLK8<57> CLK8<58> G<276> 
+G<275> G<274> G<273> G<272> G<271> G<270> G<269> G<268> G<267> G<266> G<265> 
+G<280> G<279> G<278> G<277> TTRL<57> TTRL<58> TTRR<57> TTRR<58> VDDL<57> 
+VDDL<58> VDDR<57> VDDR<58> VGLL<57> VGLL<58> VGLR<57> VGLR<58> signal_load
XI0<58> CLK1<58> CLK1<59> CLK2<58> CLK2<59> CLK3<58> CLK3<59> CLK4<58> CLK4<59> 
+CLK5<58> CLK5<59> CLK6<58> CLK6<59> CLK7<58> CLK7<59> CLK8<58> CLK8<59> G<268> 
+G<267> G<266> G<265> G<264> G<263> G<262> G<261> G<260> G<259> G<258> G<257> 
+G<272> G<271> G<270> G<269> TTRL<58> TTRL<59> TTRR<58> TTRR<59> VDDL<58> 
+VDDL<59> VDDR<58> VDDR<59> VGLL<58> VGLL<59> VGLR<58> VGLR<59> signal_load
XI0<59> CLK1<59> CLK1<60> CLK2<59> CLK2<60> CLK3<59> CLK3<60> CLK4<59> CLK4<60> 
+CLK5<59> CLK5<60> CLK6<59> CLK6<60> CLK7<59> CLK7<60> CLK8<59> CLK8<60> G<260> 
+G<259> G<258> G<257> G<256> G<255> G<254> G<253> G<252> G<251> G<250> G<249> 
+G<264> G<263> G<262> G<261> TTRL<59> TTRL<60> TTRR<59> TTRR<60> VDDL<59> 
+VDDL<60> VDDR<59> VDDR<60> VGLL<59> VGLL<60> VGLR<59> VGLR<60> signal_load
XI0<60> CLK1<60> CLK1<61> CLK2<60> CLK2<61> CLK3<60> CLK3<61> CLK4<60> CLK4<61> 
+CLK5<60> CLK5<61> CLK6<60> CLK6<61> CLK7<60> CLK7<61> CLK8<60> CLK8<61> G<252> 
+G<251> G<250> G<249> G<248> G<247> G<246> G<245> G<244> G<243> G<242> G<241> 
+G<256> G<255> G<254> G<253> TTRL<60> TTRL<61> TTRR<60> TTRR<61> VDDL<60> 
+VDDL<61> VDDR<60> VDDR<61> VGLL<60> VGLL<61> VGLR<60> VGLR<61> signal_load
XI0<61> CLK1<61> CLK1<62> CLK2<61> CLK2<62> CLK3<61> CLK3<62> CLK4<61> CLK4<62> 
+CLK5<61> CLK5<62> CLK6<61> CLK6<62> CLK7<61> CLK7<62> CLK8<61> CLK8<62> G<244> 
+G<243> G<242> G<241> G<240> G<239> G<238> G<237> G<236> G<235> G<234> G<233> 
+G<248> G<247> G<246> G<245> TTRL<61> TTRL<62> TTRR<61> TTRR<62> VDDL<61> 
+VDDL<62> VDDR<61> VDDR<62> VGLL<61> VGLL<62> VGLR<61> VGLR<62> signal_load
XI0<62> CLK1<62> CLK1<63> CLK2<62> CLK2<63> CLK3<62> CLK3<63> CLK4<62> CLK4<63> 
+CLK5<62> CLK5<63> CLK6<62> CLK6<63> CLK7<62> CLK7<63> CLK8<62> CLK8<63> G<236> 
+G<235> G<234> G<233> G<232> G<231> G<230> G<229> G<228> G<227> G<226> G<225> 
+G<240> G<239> G<238> G<237> TTRL<62> TTRL<63> TTRR<62> TTRR<63> VDDL<62> 
+VDDL<63> VDDR<62> VDDR<63> VGLL<62> VGLL<63> VGLR<62> VGLR<63> signal_load
XI0<63> CLK1<63> CLK1<64> CLK2<63> CLK2<64> CLK3<63> CLK3<64> CLK4<63> CLK4<64> 
+CLK5<63> CLK5<64> CLK6<63> CLK6<64> CLK7<63> CLK7<64> CLK8<63> CLK8<64> G<228> 
+G<227> G<226> G<225> G<224> G<223> G<222> G<221> G<220> G<219> G<218> G<217> 
+G<232> G<231> G<230> G<229> TTRL<63> TTRL<64> TTRR<63> TTRR<64> VDDL<63> 
+VDDL<64> VDDR<63> VDDR<64> VGLL<63> VGLL<64> VGLR<63> VGLR<64> signal_load
XI0<64> CLK1<64> CLK1<65> CLK2<64> CLK2<65> CLK3<64> CLK3<65> CLK4<64> CLK4<65> 
+CLK5<64> CLK5<65> CLK6<64> CLK6<65> CLK7<64> CLK7<65> CLK8<64> CLK8<65> G<220> 
+G<219> G<218> G<217> G<216> G<215> G<214> G<213> G<212> G<211> G<210> G<209> 
+G<224> G<223> G<222> G<221> TTRL<64> TTRL<65> TTRR<64> TTRR<65> VDDL<64> 
+VDDL<65> VDDR<64> VDDR<65> VGLL<64> VGLL<65> VGLR<64> VGLR<65> signal_load
XI0<65> CLK1<65> CLK1<66> CLK2<65> CLK2<66> CLK3<65> CLK3<66> CLK4<65> CLK4<66> 
+CLK5<65> CLK5<66> CLK6<65> CLK6<66> CLK7<65> CLK7<66> CLK8<65> CLK8<66> G<212> 
+G<211> G<210> G<209> G<208> G<207> G<206> G<205> G<204> G<203> G<202> G<201> 
+G<216> G<215> G<214> G<213> TTRL<65> TTRL<66> TTRR<65> TTRR<66> VDDL<65> 